 CRYSTAL
 PRIMVEC 
     1.78500000   1.78500000  -0.00000000
     0.00000000   1.78500000   1.78500000
     1.78500000   0.00000000   1.78500000
 PRIMCOORD 
   2 1
     6   0.00000000   0.00000000   0.00000000
     6   0.89250000   0.89250000   0.89250000
 BEGIN_BLOCK_DATAGRID_3D
   density
   BEGIN_DATAGRID_3D_density
     4 4 4
     0.59500000   0.59500000   0.59500000
     1.78500000   1.78500000  -0.00000000
     0.00000000   1.78500000   1.78500000
     1.78500000   0.00000000   1.78500000
      -0.00011569  -0.00482196  -0.00402077  -0.00011569
      -0.00296334   0.00121198  -0.00403392  -0.00296334
      -0.00523089  -0.00053419   0.00276798  -0.00523089
      -0.00011569  -0.00482196  -0.00402077  -0.00011569
      -0.00138374   0.00102598  -0.00165253  -0.00138374
      -0.00202657  -0.00072634  -0.00144044  -0.00202657
      -0.00009672  -0.00070617   0.00016257  -0.00009672
      -0.00138374   0.00102598  -0.00165253  -0.00138374
      -0.00228467  -0.00199138  -0.00072207  -0.00228467
      -0.00137905   0.00020368  -0.00126365  -0.00137905
      -0.00436692  -0.00121836  -0.00146646  -0.00436692
      -0.00228467  -0.00199138  -0.00072207  -0.00228467
      -0.00011569  -0.00482196  -0.00402077  -0.00011569
      -0.00296334   0.00121198  -0.00403392  -0.00296334
      -0.00523089  -0.00053419   0.00276798  -0.00523089
      -0.00011569  -0.00482196  -0.00402077  -0.00011569
   END_DATAGRID_3D_density
 END_BLOCK_DATAGRID_3D
