 CRYSTAL
 PRIMVEC 
     1.78500000   1.78500000  -0.00000000
     0.00000000   1.78500000   1.78500000
     1.78500000   0.00000000   1.78500000
 PRIMCOORD 
   2 1
     6   0.00000000   0.00000000   0.00000000
     6   0.89250000   0.89250000   0.89250000
 BEGIN_BLOCK_DATAGRID_3D
   density
   BEGIN_DATAGRID_3D_density
     4 4 4
     0.59500000   0.59500000   0.59500000
     1.78500000   1.78500000  -0.00000000
     0.00000000   1.78500000   1.78500000
     1.78500000   0.00000000   1.78500000
       0.00202632  -0.00271053  -0.00196053   0.00202632
      -0.00084868   0.00246711  -0.00284211  -0.00084868
      -0.00306579   0.00068421   0.00436842  -0.00306579
       0.00202632  -0.00271053  -0.00196053   0.00202632
       0.00061184   0.00218421  -0.00041447   0.00061184
      -0.00075658   0.00005263  -0.00025658  -0.00075658
       0.00111184   0.00038158   0.00126316   0.00111184
       0.00061184   0.00218421  -0.00041447   0.00061184
      -0.00020395  -0.00087500   0.00113816  -0.00020395
      -0.00017105   0.00132237  -0.00030263  -0.00017105
      -0.00274342  -0.00032237  -0.00013816  -0.00274342
      -0.00020395  -0.00087500   0.00113816  -0.00020395
       0.00202632  -0.00271053  -0.00196053   0.00202632
      -0.00084868   0.00246711  -0.00284211  -0.00084868
      -0.00306579   0.00068421   0.00436842  -0.00306579
       0.00202632  -0.00271053  -0.00196053   0.00202632
   END_DATAGRID_3D_density
 END_BLOCK_DATAGRID_3D
