 CRYSTAL
 PRIMVEC 
     1.78500000   1.78500000  -0.00000000
     0.00000000   1.78500000   1.78500000
     1.78500000   0.00000000   1.78500000
 PRIMCOORD 
   2 1
     6   0.00000000   0.00000000   0.00000000
     6   0.89250000   0.89250000   0.89250000
 BEGIN_BLOCK_DATAGRID_3D
   density
   BEGIN_DATAGRID_3D_density
     4 4 4
     0.59500000   0.59500000   0.59500000
     1.78500000   1.78500000  -0.00000000
     0.00000000   1.78500000   1.78500000
     1.78500000   0.00000000   1.78500000
       0.00050708   0.00198400  -0.00356150   0.00050708
      -0.00192832   0.00174899  -0.00188026  -0.00192832
      -0.00002792  -0.00282827  -0.00362454  -0.00002792
       0.00050708   0.00198400  -0.00356150   0.00050708
      -0.00156937   0.00115906  -0.00153157  -0.00156937
       0.00263971  -0.00063199  -0.00284779   0.00263971
       0.00122515  -0.00203360  -0.00026072   0.00122515
      -0.00156937   0.00115906  -0.00153157  -0.00156937
       0.00158880   0.00046022  -0.00022621   0.00158880
      -0.00034210   0.00322468   0.00027589  -0.00034210
      -0.00114446  -0.00057103  -0.00063349  -0.00114446
       0.00158880   0.00046022  -0.00022621   0.00158880
       0.00050708   0.00198400  -0.00356150   0.00050708
      -0.00192832   0.00174899  -0.00188026  -0.00192832
      -0.00002792  -0.00282827  -0.00362454  -0.00002792
       0.00050708   0.00198400  -0.00356150   0.00050708
   END_DATAGRID_3D_density
 END_BLOCK_DATAGRID_3D
