 CRYSTAL
 PRIMVEC 
     1.78500000   1.78500000  -0.00000000
     0.00000000   1.78500000   1.78500000
     1.78500000   0.00000000   1.78500000
 PRIMCOORD 
   2 1
     6   0.00000000   0.00000000   0.00000000
     6   0.89250000   0.89250000   0.89250000
 BEGIN_BLOCK_DATAGRID_3D
   density
   BEGIN_DATAGRID_3D_density
     4 4 4
     0.59500000   0.59500000   0.59500000
     1.78500000   1.78500000  -0.00000000
     0.00000000   1.78500000   1.78500000
     1.78500000   0.00000000   1.78500000
       0.00133283   0.00294291  -0.00265180   0.00133283
      -0.00100495   0.00260579  -0.00124682  -0.00100495
       0.00115382  -0.00196212  -0.00255368   0.00115382
       0.00133283   0.00294291  -0.00265180   0.00133283
      -0.00048682   0.00178299  -0.00089102  -0.00048682
       0.00333115  -0.00016948  -0.00238863   0.00333115
       0.00199061  -0.00111079   0.00027310   0.00199061
      -0.00048682   0.00178299  -0.00089102  -0.00048682
       0.00279963   0.00117999   0.00071585   0.00279963
       0.00043222   0.00394293   0.00073814   0.00043222
      -0.00007636   0.00010989   0.00004018  -0.00007636
       0.00279963   0.00117999   0.00071585   0.00279963
       0.00133283   0.00294291  -0.00265180   0.00133283
      -0.00100495   0.00260579  -0.00124682  -0.00100495
       0.00115382  -0.00196212  -0.00255368   0.00115382
       0.00133283   0.00294291  -0.00265180   0.00133283
   END_DATAGRID_3D_density
 END_BLOCK_DATAGRID_3D
