 CRYSTAL
 PRIMVEC 
     1.78500000   1.78500000  -0.00000000
     0.00000000   1.78500000   1.78500000
     1.78500000   0.00000000   1.78500000
 PRIMCOORD 
   2 1
     6   0.00000000   0.00000000   0.00000000
     6   0.89250000   0.89250000   0.89250000
 BEGIN_BLOCK_DATAGRID_3D
   density
   BEGIN_DATAGRID_3D_density
     4 4 4
     0.59500000   0.59500000   0.59500000
     1.78500000   1.78500000  -0.00000000
     0.00000000   1.78500000   1.78500000
     1.78500000   0.00000000   1.78500000
       0.00091996   0.00246346  -0.00310665   0.00091996
      -0.00146664   0.00217739  -0.00156354  -0.00146664
       0.00056295  -0.00239519  -0.00308911   0.00056295
       0.00091996   0.00246346  -0.00310665   0.00091996
      -0.00102810   0.00147103  -0.00121129  -0.00102810
       0.00298543  -0.00040073  -0.00261821   0.00298543
       0.00160788  -0.00157220   0.00000619   0.00160788
      -0.00102810   0.00147103  -0.00121129  -0.00102810
       0.00219421   0.00082011   0.00024482   0.00219421
       0.00004506   0.00358381   0.00050701   0.00004506
      -0.00061041  -0.00023057  -0.00029666  -0.00061041
       0.00219421   0.00082011   0.00024482   0.00219421
       0.00091996   0.00246346  -0.00310665   0.00091996
      -0.00146664   0.00217739  -0.00156354  -0.00146664
       0.00056295  -0.00239519  -0.00308911   0.00056295
       0.00091996   0.00246346  -0.00310665   0.00091996
   END_DATAGRID_3D_density
 END_BLOCK_DATAGRID_3D
