 CRYSTAL
 PRIMVEC 
     1.78500000   1.78500000  -0.00000000
     0.00000000   1.78500000   1.78500000
     1.78500000   0.00000000   1.78500000
 PRIMCOORD 
   2 1
     6   0.00000000   0.00000000   0.00000000
     6   0.89250000   0.89250000   0.89250000
 BEGIN_BLOCK_DATAGRID_3D
   density
   BEGIN_DATAGRID_3D_density
     4 4 4
     0.59500000   0.59500000   0.59500000
     1.78500000   1.78500000  -0.00000000
     0.00000000   1.78500000   1.78500000
     1.78500000   0.00000000   1.78500000
       0.00416832  -0.00059909   0.00009972   0.00416832
       0.00126597   0.00372223  -0.00165029   0.00126597
      -0.00090068   0.00190262   0.00596886  -0.00090068
       0.00416832  -0.00059909   0.00009972   0.00416832
       0.00260742   0.00334244   0.00082358   0.00260742
       0.00051341   0.00083160   0.00092728   0.00051341
       0.00232041   0.00146933   0.00236375   0.00232041
       0.00260742   0.00334244   0.00082358   0.00260742
       0.00187678   0.00024138   0.00299838   0.00187678
       0.00103695   0.00244106   0.00065838   0.00103695
      -0.00111992   0.00057362   0.00119014  -0.00111992
       0.00187678   0.00024138   0.00299838   0.00187678
       0.00416832  -0.00059909   0.00009972   0.00416832
       0.00126597   0.00372223  -0.00165029   0.00126597
      -0.00090068   0.00190262   0.00596886  -0.00090068
       0.00416832  -0.00059909   0.00009972   0.00416832
   END_DATAGRID_3D_density
 END_BLOCK_DATAGRID_3D
